# generated using pymatgen
data_CsPbBr3
_symmetry_space_group_name_H-M   Pnma
_cell_length_a   8.45384704
_cell_length_b   11.87891123
_cell_length_c   8.10107841
_cell_angle_alpha   90.00000000
_cell_angle_beta   90.00000000
_cell_angle_gamma   90.00000000
_symmetry_Int_Tables_number   62
_chemical_formula_structural   CsPbBr3
_chemical_formula_sum   'Cs4 Pb4 Br12'
_cell_volume   813.53053480
_cell_formula_units_Z   4
loop_
 _symmetry_equiv_pos_site_id
 _symmetry_equiv_pos_as_xyz
  1  'x, y, z'
  2  '-x, -y, -z'
  3  '-x+1/2, -y, z+1/2'
  4  'x+1/2, y, -z+1/2'
  5  'x+1/2, -y+1/2, -z+1/2'
  6  '-x+1/2, y+1/2, z+1/2'
  7  '-x, y+1/2, -z'
  8  'x, -y+1/2, z'
loop_
 _atom_site_type_symbol
 _atom_site_label
 _atom_site_symmetry_multiplicity
 _atom_site_fract_x
 _atom_site_fract_y
 _atom_site_fract_z
 _atom_site_occupancy
  Cs  Cs0  4  0.06016347  0.75000000  0.01945212  1.0
  Pb  Pb1  4  0.00000000  0.00000000  0.50000000  1.0
  Br  Br2  8  0.20102217  0.03170128  0.80279189  1.0
  Br  Br3  4  0.00625945  0.25000000  0.44033452  1.0
